
---------- Begin Simulation Statistics ----------
simSeconds                                   0.010990                       # Number of seconds simulated (Second)
simTicks                                  10989658000                       # Number of ticks simulated (Tick)
finalTick                                 10989658000                       # Number of ticks from beginning of simulation (restored from checkpoints and never reset) (Tick)
simFreq                                  1000000000000                       # The number of ticks per simulated second ((Tick/Second))
hostSeconds                                      8.16                       # Real time elapsed on the host (Second)
hostTickRate                               1346842008                       # The number of ticks simulated per host second (ticks/s) ((Tick/Second))
hostMemory                                     694736                       # Number of bytes of host memory used (Byte)
simInsts                                      1950522                       # Number of instructions simulated (Count)
simOps                                        3584475                       # Number of ops (including micro ops) simulated (Count)
hostInstRate                                   239039                       # Simulator instruction rate (inst/s) ((Count/Second))
hostOpRate                                     439282                       # Simulator op (including micro ops) rate (op/s) ((Count/Second))
system.clk_domain.clock                          1000                       # Clock period in ticks (Tick)
system.clk_domain.voltage_domain.voltage            1                       # Voltage in Volts (Volt)
system.cpu.numCycles                         10989658                       # Number of cpu cycles simulated (Cycle)
system.cpu.cpi                               5.634015                       # CPI: cycles per instruction (core level) ((Cycle/Count))
system.cpu.ipc                               0.177493                       # IPC: instructions per cycle (core level) ((Count/Cycle))
system.cpu.numWorkItemsStarted                      0                       # Number of work items this cpu started (Count)
system.cpu.numWorkItemsCompleted                    0                       # Number of work items this cpu completed (Count)
system.cpu.commitStats0.numInsts              1950591                       # Number of instructions committed (thread level) (Count)
system.cpu.commitStats0.numOps                3584777                       # Number of ops (including micro ops) committed (thread level) (Count)
system.cpu.commitStats0.numInstsNotNOP              0                       # Number of instructions committed excluding NOPs or prefetches (Count)
system.cpu.commitStats0.numOpsNotNOP                0                       # Number of Ops (including micro ops) Simulated (Count)
system.cpu.commitStats0.cpi                  5.634015                       # CPI: cycles per instruction (thread level) ((Cycle/Count))
system.cpu.commitStats0.ipc                  0.177493                       # IPC: instructions per cycle (thread level) ((Count/Cycle))
system.cpu.commitStats0.numMemRefs                  0                       # Number of memory references committed (Count)
system.cpu.commitStats0.numFpInsts               5930                       # Number of float instructions (Count)
system.cpu.commitStats0.numIntInsts           3579693                       # Number of integer instructions (Count)
system.cpu.commitStats0.numLoadInsts           925683                       # Number of load instructions (Count)
system.cpu.commitStats0.numStoreInsts          412626                       # Number of store instructions (Count)
system.cpu.commitStats0.numVecInsts                 0                       # Number of vector instructions (Count)
system.cpu.commitStats0.committedInstType::No_OpClass         1083      0.03%      0.03% # Class of committed instruction. (Count)
system.cpu.commitStats0.committedInstType::IntAlu      2240503     62.50%     62.53% # Class of committed instruction. (Count)
system.cpu.commitStats0.committedInstType::IntMult           15      0.00%     62.53% # Class of committed instruction. (Count)
system.cpu.commitStats0.committedInstType::IntDiv         1380      0.04%     62.57% # Class of committed instruction. (Count)
system.cpu.commitStats0.committedInstType::FloatAdd          425      0.01%     62.58% # Class of committed instruction. (Count)
system.cpu.commitStats0.committedInstType::FloatCmp            0      0.00%     62.58% # Class of committed instruction. (Count)
system.cpu.commitStats0.committedInstType::FloatCvt           32      0.00%     62.58% # Class of committed instruction. (Count)
system.cpu.commitStats0.committedInstType::FloatMult            0      0.00%     62.58% # Class of committed instruction. (Count)
system.cpu.commitStats0.committedInstType::FloatMultAcc            0      0.00%     62.58% # Class of committed instruction. (Count)
system.cpu.commitStats0.committedInstType::FloatDiv            0      0.00%     62.58% # Class of committed instruction. (Count)
system.cpu.commitStats0.committedInstType::FloatMisc            0      0.00%     62.58% # Class of committed instruction. (Count)
system.cpu.commitStats0.committedInstType::FloatSqrt            0      0.00%     62.58% # Class of committed instruction. (Count)
system.cpu.commitStats0.committedInstType::SimdAdd          340      0.01%     62.59% # Class of committed instruction. (Count)
system.cpu.commitStats0.committedInstType::SimdAddAcc            0      0.00%     62.59% # Class of committed instruction. (Count)
system.cpu.commitStats0.committedInstType::SimdAlu          784      0.02%     62.61% # Class of committed instruction. (Count)
system.cpu.commitStats0.committedInstType::SimdCmp            0      0.00%     62.61% # Class of committed instruction. (Count)
system.cpu.commitStats0.committedInstType::SimdCvt          804      0.02%     62.64% # Class of committed instruction. (Count)
system.cpu.commitStats0.committedInstType::SimdMisc          943      0.03%     62.66% # Class of committed instruction. (Count)
system.cpu.commitStats0.committedInstType::SimdMult            0      0.00%     62.66% # Class of committed instruction. (Count)
system.cpu.commitStats0.committedInstType::SimdMultAcc            0      0.00%     62.66% # Class of committed instruction. (Count)
system.cpu.commitStats0.committedInstType::SimdMatMultAcc            0      0.00%     62.66% # Class of committed instruction. (Count)
system.cpu.commitStats0.committedInstType::SimdShift          159      0.00%     62.67% # Class of committed instruction. (Count)
system.cpu.commitStats0.committedInstType::SimdShiftAcc            0      0.00%     62.67% # Class of committed instruction. (Count)
system.cpu.commitStats0.committedInstType::SimdDiv            0      0.00%     62.67% # Class of committed instruction. (Count)
system.cpu.commitStats0.committedInstType::SimdSqrt            0      0.00%     62.67% # Class of committed instruction. (Count)
system.cpu.commitStats0.committedInstType::SimdFloatAdd            0      0.00%     62.67% # Class of committed instruction. (Count)
system.cpu.commitStats0.committedInstType::SimdFloatAlu            0      0.00%     62.67% # Class of committed instruction. (Count)
system.cpu.commitStats0.committedInstType::SimdFloatCmp            0      0.00%     62.67% # Class of committed instruction. (Count)
system.cpu.commitStats0.committedInstType::SimdFloatCvt            0      0.00%     62.67% # Class of committed instruction. (Count)
system.cpu.commitStats0.committedInstType::SimdFloatDiv            0      0.00%     62.67% # Class of committed instruction. (Count)
system.cpu.commitStats0.committedInstType::SimdFloatMisc            0      0.00%     62.67% # Class of committed instruction. (Count)
system.cpu.commitStats0.committedInstType::SimdFloatMult            0      0.00%     62.67% # Class of committed instruction. (Count)
system.cpu.commitStats0.committedInstType::SimdFloatMultAcc            0      0.00%     62.67% # Class of committed instruction. (Count)
system.cpu.commitStats0.committedInstType::SimdFloatMatMultAcc            0      0.00%     62.67% # Class of committed instruction. (Count)
system.cpu.commitStats0.committedInstType::SimdFloatSqrt            0      0.00%     62.67% # Class of committed instruction. (Count)
system.cpu.commitStats0.committedInstType::SimdReduceAdd            0      0.00%     62.67% # Class of committed instruction. (Count)
system.cpu.commitStats0.committedInstType::SimdReduceAlu            0      0.00%     62.67% # Class of committed instruction. (Count)
system.cpu.commitStats0.committedInstType::SimdReduceCmp            0      0.00%     62.67% # Class of committed instruction. (Count)
system.cpu.commitStats0.committedInstType::SimdFloatReduceAdd            0      0.00%     62.67% # Class of committed instruction. (Count)
system.cpu.commitStats0.committedInstType::SimdFloatReduceCmp            0      0.00%     62.67% # Class of committed instruction. (Count)
system.cpu.commitStats0.committedInstType::SimdAes            0      0.00%     62.67% # Class of committed instruction. (Count)
system.cpu.commitStats0.committedInstType::SimdAesMix            0      0.00%     62.67% # Class of committed instruction. (Count)
system.cpu.commitStats0.committedInstType::SimdSha1Hash            0      0.00%     62.67% # Class of committed instruction. (Count)
system.cpu.commitStats0.committedInstType::SimdSha1Hash2            0      0.00%     62.67% # Class of committed instruction. (Count)
system.cpu.commitStats0.committedInstType::SimdSha256Hash            0      0.00%     62.67% # Class of committed instruction. (Count)
system.cpu.commitStats0.committedInstType::SimdSha256Hash2            0      0.00%     62.67% # Class of committed instruction. (Count)
system.cpu.commitStats0.committedInstType::SimdShaSigma2            0      0.00%     62.67% # Class of committed instruction. (Count)
system.cpu.commitStats0.committedInstType::SimdShaSigma3            0      0.00%     62.67% # Class of committed instruction. (Count)
system.cpu.commitStats0.committedInstType::SimdPredAlu            0      0.00%     62.67% # Class of committed instruction. (Count)
system.cpu.commitStats0.committedInstType::Matrix            0      0.00%     62.67% # Class of committed instruction. (Count)
system.cpu.commitStats0.committedInstType::MatrixMov            0      0.00%     62.67% # Class of committed instruction. (Count)
system.cpu.commitStats0.committedInstType::MatrixOP            0      0.00%     62.67% # Class of committed instruction. (Count)
system.cpu.commitStats0.committedInstType::MemRead       924725     25.80%     88.46% # Class of committed instruction. (Count)
system.cpu.commitStats0.committedInstType::MemWrite       411471     11.48%     99.94% # Class of committed instruction. (Count)
system.cpu.commitStats0.committedInstType::FloatMemRead          958      0.03%     99.97% # Class of committed instruction. (Count)
system.cpu.commitStats0.committedInstType::FloatMemWrite         1155      0.03%    100.00% # Class of committed instruction. (Count)
system.cpu.commitStats0.committedInstType::IprAccess            0      0.00%    100.00% # Class of committed instruction. (Count)
system.cpu.commitStats0.committedInstType::InstPrefetch            0      0.00%    100.00% # Class of committed instruction. (Count)
system.cpu.commitStats0.committedInstType::VectorUnitStrideLoad            0      0.00%    100.00% # Class of committed instruction. (Count)
system.cpu.commitStats0.committedInstType::VectorUnitStrideStore            0      0.00%    100.00% # Class of committed instruction. (Count)
system.cpu.commitStats0.committedInstType::VectorUnitStrideMaskLoad            0      0.00%    100.00% # Class of committed instruction. (Count)
system.cpu.commitStats0.committedInstType::VectorUnitStrideMaskStore            0      0.00%    100.00% # Class of committed instruction. (Count)
system.cpu.commitStats0.committedInstType::VectorStridedLoad            0      0.00%    100.00% # Class of committed instruction. (Count)
system.cpu.commitStats0.committedInstType::VectorStridedStore            0      0.00%    100.00% # Class of committed instruction. (Count)
system.cpu.commitStats0.committedInstType::VectorIndexedLoad            0      0.00%    100.00% # Class of committed instruction. (Count)
system.cpu.commitStats0.committedInstType::VectorIndexedStore            0      0.00%    100.00% # Class of committed instruction. (Count)
system.cpu.commitStats0.committedInstType::VectorUnitStrideFaultOnlyFirstLoad            0      0.00%    100.00% # Class of committed instruction. (Count)
system.cpu.commitStats0.committedInstType::VectorWholeRegisterLoad            0      0.00%    100.00% # Class of committed instruction. (Count)
system.cpu.commitStats0.committedInstType::VectorWholeRegisterStore            0      0.00%    100.00% # Class of committed instruction. (Count)
system.cpu.commitStats0.committedInstType::VectorIntegerArith            0      0.00%    100.00% # Class of committed instruction. (Count)
system.cpu.commitStats0.committedInstType::VectorFloatArith            0      0.00%    100.00% # Class of committed instruction. (Count)
system.cpu.commitStats0.committedInstType::VectorFloatConvert            0      0.00%    100.00% # Class of committed instruction. (Count)
system.cpu.commitStats0.committedInstType::VectorIntegerReduce            0      0.00%    100.00% # Class of committed instruction. (Count)
system.cpu.commitStats0.committedInstType::VectorFloatReduce            0      0.00%    100.00% # Class of committed instruction. (Count)
system.cpu.commitStats0.committedInstType::VectorMisc            0      0.00%    100.00% # Class of committed instruction. (Count)
system.cpu.commitStats0.committedInstType::VectorIntegerExtension            0      0.00%    100.00% # Class of committed instruction. (Count)
system.cpu.commitStats0.committedInstType::VectorConfig            0      0.00%    100.00% # Class of committed instruction. (Count)
system.cpu.commitStats0.committedInstType::total      3584777                       # Class of committed instruction. (Count)
system.cpu.commitStats0.committedControl::IsControl       219257                       # Class of control type instructions committed (Count)
system.cpu.commitStats0.committedControl::IsDirectControl       218122                       # Class of control type instructions committed (Count)
system.cpu.commitStats0.committedControl::IsIndirectControl         1114                       # Class of control type instructions committed (Count)
system.cpu.commitStats0.committedControl::IsCondControl       216661                       # Class of control type instructions committed (Count)
system.cpu.commitStats0.committedControl::IsUncondControl         2575                       # Class of control type instructions committed (Count)
system.cpu.commitStats0.committedControl::IsCall          804                       # Class of control type instructions committed (Count)
system.cpu.commitStats0.committedControl::IsReturn          799                       # Class of control type instructions committed (Count)
system.cpu.dcache.demandHits::cpu.data        1317040                       # number of demand (read+write) hits (Count)
system.cpu.dcache.demandHits::total           1317040                       # number of demand (read+write) hits (Count)
system.cpu.dcache.overallHits::cpu.data       1317040                       # number of overall hits (Count)
system.cpu.dcache.overallHits::total          1317040                       # number of overall hits (Count)
system.cpu.dcache.demandMisses::cpu.data        20973                       # number of demand (read+write) misses (Count)
system.cpu.dcache.demandMisses::total           20973                       # number of demand (read+write) misses (Count)
system.cpu.dcache.overallMisses::cpu.data        20973                       # number of overall misses (Count)
system.cpu.dcache.overallMisses::total          20973                       # number of overall misses (Count)
system.cpu.dcache.demandMissLatency::cpu.data   2216025000                       # number of demand (read+write) miss ticks (Tick)
system.cpu.dcache.demandMissLatency::total   2216025000                       # number of demand (read+write) miss ticks (Tick)
system.cpu.dcache.overallMissLatency::cpu.data   2216025000                       # number of overall miss ticks (Tick)
system.cpu.dcache.overallMissLatency::total   2216025000                       # number of overall miss ticks (Tick)
system.cpu.dcache.demandAccesses::cpu.data      1338013                       # number of demand (read+write) accesses (Count)
system.cpu.dcache.demandAccesses::total       1338013                       # number of demand (read+write) accesses (Count)
system.cpu.dcache.overallAccesses::cpu.data      1338013                       # number of overall (read+write) accesses (Count)
system.cpu.dcache.overallAccesses::total      1338013                       # number of overall (read+write) accesses (Count)
system.cpu.dcache.demandMissRate::cpu.data     0.015675                       # miss rate for demand accesses (Ratio)
system.cpu.dcache.demandMissRate::total      0.015675                       # miss rate for demand accesses (Ratio)
system.cpu.dcache.overallMissRate::cpu.data     0.015675                       # miss rate for overall accesses (Ratio)
system.cpu.dcache.overallMissRate::total     0.015675                       # miss rate for overall accesses (Ratio)
system.cpu.dcache.demandAvgMissLatency::cpu.data 105660.849664                       # average overall miss latency in ticks ((Tick/Count))
system.cpu.dcache.demandAvgMissLatency::total 105660.849664                       # average overall miss latency in ticks ((Tick/Count))
system.cpu.dcache.overallAvgMissLatency::cpu.data 105660.849664                       # average overall miss latency ((Tick/Count))
system.cpu.dcache.overallAvgMissLatency::total 105660.849664                       # average overall miss latency ((Tick/Count))
system.cpu.dcache.blockedCycles::no_mshrs            0                       # number of cycles access was blocked (Cycle)
system.cpu.dcache.blockedCycles::no_targets            0                       # number of cycles access was blocked (Cycle)
system.cpu.dcache.blockedCauses::no_mshrs            0                       # number of times access was blocked (Count)
system.cpu.dcache.blockedCauses::no_targets            0                       # number of times access was blocked (Count)
system.cpu.dcache.avgBlocked::no_mshrs            nan                       # average number of cycles each access was blocked ((Cycle/Count))
system.cpu.dcache.avgBlocked::no_targets          nan                       # average number of cycles each access was blocked ((Cycle/Count))
system.cpu.dcache.writebacks::writebacks        12950                       # number of writebacks (Count)
system.cpu.dcache.writebacks::total             12950                       # number of writebacks (Count)
system.cpu.dcache.demandMshrMisses::cpu.data        20973                       # number of demand (read+write) MSHR misses (Count)
system.cpu.dcache.demandMshrMisses::total        20973                       # number of demand (read+write) MSHR misses (Count)
system.cpu.dcache.overallMshrMisses::cpu.data        20973                       # number of overall MSHR misses (Count)
system.cpu.dcache.overallMshrMisses::total        20973                       # number of overall MSHR misses (Count)
system.cpu.dcache.demandMshrMissLatency::cpu.data   2174079000                       # number of demand (read+write) MSHR miss ticks (Tick)
system.cpu.dcache.demandMshrMissLatency::total   2174079000                       # number of demand (read+write) MSHR miss ticks (Tick)
system.cpu.dcache.overallMshrMissLatency::cpu.data   2174079000                       # number of overall MSHR miss ticks (Tick)
system.cpu.dcache.overallMshrMissLatency::total   2174079000                       # number of overall MSHR miss ticks (Tick)
system.cpu.dcache.demandMshrMissRate::cpu.data     0.015675                       # mshr miss ratio for demand accesses (Ratio)
system.cpu.dcache.demandMshrMissRate::total     0.015675                       # mshr miss ratio for demand accesses (Ratio)
system.cpu.dcache.overallMshrMissRate::cpu.data     0.015675                       # mshr miss ratio for overall accesses (Ratio)
system.cpu.dcache.overallMshrMissRate::total     0.015675                       # mshr miss ratio for overall accesses (Ratio)
system.cpu.dcache.demandAvgMshrMissLatency::cpu.data 103660.849664                       # average overall mshr miss latency ((Tick/Count))
system.cpu.dcache.demandAvgMshrMissLatency::total 103660.849664                       # average overall mshr miss latency ((Tick/Count))
system.cpu.dcache.overallAvgMshrMissLatency::cpu.data 103660.849664                       # average overall mshr miss latency ((Tick/Count))
system.cpu.dcache.overallAvgMshrMissLatency::total 103660.849664                       # average overall mshr miss latency ((Tick/Count))
system.cpu.dcache.replacements                  19952                       # number of replacements (Count)
system.cpu.dcache.LockedRMWReadReq.hits::cpu.data           17                       # number of LockedRMWReadReq hits (Count)
system.cpu.dcache.LockedRMWReadReq.hits::total           17                       # number of LockedRMWReadReq hits (Count)
system.cpu.dcache.LockedRMWReadReq.misses::cpu.data            3                       # number of LockedRMWReadReq misses (Count)
system.cpu.dcache.LockedRMWReadReq.misses::total            3                       # number of LockedRMWReadReq misses (Count)
system.cpu.dcache.LockedRMWReadReq.missLatency::cpu.data       427000                       # number of LockedRMWReadReq miss ticks (Tick)
system.cpu.dcache.LockedRMWReadReq.missLatency::total       427000                       # number of LockedRMWReadReq miss ticks (Tick)
system.cpu.dcache.LockedRMWReadReq.accesses::cpu.data           20                       # number of LockedRMWReadReq accesses(hits+misses) (Count)
system.cpu.dcache.LockedRMWReadReq.accesses::total           20                       # number of LockedRMWReadReq accesses(hits+misses) (Count)
system.cpu.dcache.LockedRMWReadReq.missRate::cpu.data     0.150000                       # miss rate for LockedRMWReadReq accesses (Ratio)
system.cpu.dcache.LockedRMWReadReq.missRate::total     0.150000                       # miss rate for LockedRMWReadReq accesses (Ratio)
system.cpu.dcache.LockedRMWReadReq.avgMissLatency::cpu.data 142333.333333                       # average LockedRMWReadReq miss latency ((Tick/Count))
system.cpu.dcache.LockedRMWReadReq.avgMissLatency::total 142333.333333                       # average LockedRMWReadReq miss latency ((Tick/Count))
system.cpu.dcache.LockedRMWReadReq.mshrMisses::cpu.data            3                       # number of LockedRMWReadReq MSHR misses (Count)
system.cpu.dcache.LockedRMWReadReq.mshrMisses::total            3                       # number of LockedRMWReadReq MSHR misses (Count)
system.cpu.dcache.LockedRMWReadReq.mshrMissLatency::cpu.data       882000                       # number of LockedRMWReadReq MSHR miss ticks (Tick)
system.cpu.dcache.LockedRMWReadReq.mshrMissLatency::total       882000                       # number of LockedRMWReadReq MSHR miss ticks (Tick)
system.cpu.dcache.LockedRMWReadReq.mshrMissRate::cpu.data     0.150000                       # mshr miss rate for LockedRMWReadReq accesses (Ratio)
system.cpu.dcache.LockedRMWReadReq.mshrMissRate::total     0.150000                       # mshr miss rate for LockedRMWReadReq accesses (Ratio)
system.cpu.dcache.LockedRMWReadReq.avgMshrMissLatency::cpu.data       294000                       # average LockedRMWReadReq mshr miss latency ((Tick/Count))
system.cpu.dcache.LockedRMWReadReq.avgMshrMissLatency::total       294000                       # average LockedRMWReadReq mshr miss latency ((Tick/Count))
system.cpu.dcache.LockedRMWWriteReq.hits::cpu.data           20                       # number of LockedRMWWriteReq hits (Count)
system.cpu.dcache.LockedRMWWriteReq.hits::total           20                       # number of LockedRMWWriteReq hits (Count)
system.cpu.dcache.LockedRMWWriteReq.accesses::cpu.data           20                       # number of LockedRMWWriteReq accesses(hits+misses) (Count)
system.cpu.dcache.LockedRMWWriteReq.accesses::total           20                       # number of LockedRMWWriteReq accesses(hits+misses) (Count)
system.cpu.dcache.ReadReq.hits::cpu.data       917530                       # number of ReadReq hits (Count)
system.cpu.dcache.ReadReq.hits::total          917530                       # number of ReadReq hits (Count)
system.cpu.dcache.ReadReq.misses::cpu.data         7890                       # number of ReadReq misses (Count)
system.cpu.dcache.ReadReq.misses::total          7890                       # number of ReadReq misses (Count)
system.cpu.dcache.ReadReq.missLatency::cpu.data    839061000                       # number of ReadReq miss ticks (Tick)
system.cpu.dcache.ReadReq.missLatency::total    839061000                       # number of ReadReq miss ticks (Tick)
system.cpu.dcache.ReadReq.accesses::cpu.data       925420                       # number of ReadReq accesses(hits+misses) (Count)
system.cpu.dcache.ReadReq.accesses::total       925420                       # number of ReadReq accesses(hits+misses) (Count)
system.cpu.dcache.ReadReq.missRate::cpu.data     0.008526                       # miss rate for ReadReq accesses (Ratio)
system.cpu.dcache.ReadReq.missRate::total     0.008526                       # miss rate for ReadReq accesses (Ratio)
system.cpu.dcache.ReadReq.avgMissLatency::cpu.data 106344.866920                       # average ReadReq miss latency ((Tick/Count))
system.cpu.dcache.ReadReq.avgMissLatency::total 106344.866920                       # average ReadReq miss latency ((Tick/Count))
system.cpu.dcache.ReadReq.mshrMisses::cpu.data         7890                       # number of ReadReq MSHR misses (Count)
system.cpu.dcache.ReadReq.mshrMisses::total         7890                       # number of ReadReq MSHR misses (Count)
system.cpu.dcache.ReadReq.mshrMissLatency::cpu.data    823281000                       # number of ReadReq MSHR miss ticks (Tick)
system.cpu.dcache.ReadReq.mshrMissLatency::total    823281000                       # number of ReadReq MSHR miss ticks (Tick)
system.cpu.dcache.ReadReq.mshrMissRate::cpu.data     0.008526                       # mshr miss rate for ReadReq accesses (Ratio)
system.cpu.dcache.ReadReq.mshrMissRate::total     0.008526                       # mshr miss rate for ReadReq accesses (Ratio)
system.cpu.dcache.ReadReq.avgMshrMissLatency::cpu.data 104344.866920                       # average ReadReq mshr miss latency ((Tick/Count))
system.cpu.dcache.ReadReq.avgMshrMissLatency::total 104344.866920                       # average ReadReq mshr miss latency ((Tick/Count))
system.cpu.dcache.WriteReq.hits::cpu.data       399510                       # number of WriteReq hits (Count)
system.cpu.dcache.WriteReq.hits::total         399510                       # number of WriteReq hits (Count)
system.cpu.dcache.WriteReq.misses::cpu.data        13083                       # number of WriteReq misses (Count)
system.cpu.dcache.WriteReq.misses::total        13083                       # number of WriteReq misses (Count)
system.cpu.dcache.WriteReq.missLatency::cpu.data   1376964000                       # number of WriteReq miss ticks (Tick)
system.cpu.dcache.WriteReq.missLatency::total   1376964000                       # number of WriteReq miss ticks (Tick)
system.cpu.dcache.WriteReq.accesses::cpu.data       412593                       # number of WriteReq accesses(hits+misses) (Count)
system.cpu.dcache.WriteReq.accesses::total       412593                       # number of WriteReq accesses(hits+misses) (Count)
system.cpu.dcache.WriteReq.missRate::cpu.data     0.031709                       # miss rate for WriteReq accesses (Ratio)
system.cpu.dcache.WriteReq.missRate::total     0.031709                       # miss rate for WriteReq accesses (Ratio)
system.cpu.dcache.WriteReq.avgMissLatency::cpu.data 105248.337537                       # average WriteReq miss latency ((Tick/Count))
system.cpu.dcache.WriteReq.avgMissLatency::total 105248.337537                       # average WriteReq miss latency ((Tick/Count))
system.cpu.dcache.WriteReq.mshrMisses::cpu.data        13083                       # number of WriteReq MSHR misses (Count)
system.cpu.dcache.WriteReq.mshrMisses::total        13083                       # number of WriteReq MSHR misses (Count)
system.cpu.dcache.WriteReq.mshrMissLatency::cpu.data   1350798000                       # number of WriteReq MSHR miss ticks (Tick)
system.cpu.dcache.WriteReq.mshrMissLatency::total   1350798000                       # number of WriteReq MSHR miss ticks (Tick)
system.cpu.dcache.WriteReq.mshrMissRate::cpu.data     0.031709                       # mshr miss rate for WriteReq accesses (Ratio)
system.cpu.dcache.WriteReq.mshrMissRate::total     0.031709                       # mshr miss rate for WriteReq accesses (Ratio)
system.cpu.dcache.WriteReq.avgMshrMissLatency::cpu.data 103248.337537                       # average WriteReq mshr miss latency ((Tick/Count))
system.cpu.dcache.WriteReq.avgMshrMissLatency::total 103248.337537                       # average WriteReq mshr miss latency ((Tick/Count))
system.cpu.dcache.power_state.pwrStateResidencyTicks::UNDEFINED  10989658000                       # Cumulative time (in ticks) in various power states (Tick)
system.cpu.dcache.tags.tagsInUse          1006.617938                       # Average ticks per tags in use ((Tick/Count))
system.cpu.dcache.tags.totalRefs               322107                       # Total number of references to valid blocks. (Count)
system.cpu.dcache.tags.sampledRefs              19952                       # Sample count of references to valid blocks. (Count)
system.cpu.dcache.tags.avgRefs              16.144096                       # Average number of references to valid blocks. ((Count/Count))
system.cpu.dcache.tags.warmupTick              218000                       # The tick when the warmup percentage was hit. (Tick)
system.cpu.dcache.tags.occupancies::cpu.data  1006.617938                       # Average occupied blocks per tick, per requestor ((Count/Tick))
system.cpu.dcache.tags.avgOccs::cpu.data     0.983025                       # Average percentage of cache occupancy ((Ratio/Tick))
system.cpu.dcache.tags.avgOccs::total        0.983025                       # Average percentage of cache occupancy ((Ratio/Tick))
system.cpu.dcache.tags.occupanciesTaskId::1024         1024                       # Occupied blocks per task id (Count)
system.cpu.dcache.tags.ageTaskId_1024::0           25                       # Occupied blocks per task id, per block age (Count)
system.cpu.dcache.tags.ageTaskId_1024::1          198                       # Occupied blocks per task id, per block age (Count)
system.cpu.dcache.tags.ageTaskId_1024::2          800                       # Occupied blocks per task id, per block age (Count)
system.cpu.dcache.tags.ageTaskId_1024::4            1                       # Occupied blocks per task id, per block age (Count)
system.cpu.dcache.tags.ratioOccsTaskId::1024            1                       # Ratio of occupied blocks and all blocks, per task id (Ratio)
system.cpu.dcache.tags.tagAccesses            2697082                       # Number of tag accesses (Count)
system.cpu.dcache.tags.dataAccesses           2697082                       # Number of data accesses (Count)
system.cpu.dcache.tags.power_state.pwrStateResidencyTicks::UNDEFINED  10989658000                       # Cumulative time (in ticks) in various power states (Tick)
system.cpu.exec_context.thread_0.numMatAluAccesses            0                       # Number of matrix alu accesses (Count)
system.cpu.exec_context.thread_0.numCallsReturns         1603                       # Number of times a function call or return occured (Count)
system.cpu.exec_context.thread_0.numMatInsts            0                       # Number of matrix instructions (Count)
system.cpu.exec_context.thread_0.numIdleCycles     0.001000                       # Number of idle cycles (Cycle)
system.cpu.exec_context.thread_0.numBusyCycles 10989657.999000                       # Number of busy cycles (Cycle)
system.cpu.exec_context.thread_0.notIdleFraction     1.000000                       # Percentage of non-idle cycles (Ratio)
system.cpu.exec_context.thread_0.idleFraction     0.000000                       # Percentage of idle cycles (Ratio)
system.cpu.executeStats0.numInsts                   0                       # Number of executed instructions (Count)
system.cpu.executeStats0.numNop                     0                       # Number of nop insts executed (Count)
system.cpu.executeStats0.numBranches                0                       # Number of branches executed (Count)
system.cpu.executeStats0.numLoadInsts               0                       # Number of load instructions executed (Count)
system.cpu.executeStats0.numStoreInsts        1338309                       # Number of stores executed (Count)
system.cpu.executeStats0.instRate                   0                       # Inst execution rate ((Count/Cycle))
system.cpu.executeStats0.numFpAluAccesses         5930                       # Number of float alu accesses (Count)
system.cpu.executeStats0.numFpRegReads           8282                       # Number of times the floating registers were read (Count)
system.cpu.executeStats0.numFpRegWrites          4304                       # Number of times the floating registers were written (Count)
system.cpu.executeStats0.numIntAluAccesses      3579693                       # Number of integer alu accesses (Count)
system.cpu.executeStats0.numIntRegReads       4341518                       # Number of times the integer registers were read (Count)
system.cpu.executeStats0.numIntRegWrites      2734772                       # Number of times the integer registers were written (Count)
system.cpu.executeStats0.numMemRefs           1338309                       # Number of memory refs (Count)
system.cpu.executeStats0.numMiscRegReads      1775573                       # Number of times the Misc registers were read (Count)
system.cpu.executeStats0.numMiscRegWrites           18                       # Number of times the Misc registers were written (Count)
system.cpu.executeStats0.numVecAluAccesses            0                       # Number of vector alu accesses (Count)
system.cpu.executeStats0.numDiscardedOps            0                       # Number of ops (including micro ops) which were discarded before commit (Count)
system.cpu.fetchStats0.numInsts               1950591                       # Number of instructions fetched (thread level) (Count)
system.cpu.fetchStats0.numOps                 3584777                       # Number of ops (including micro ops) fetched (thread level) (Count)
system.cpu.fetchStats0.fetchRate             0.177493                       # Number of inst fetches per cycle ((Count/Cycle))
system.cpu.fetchStats0.numBranches             219257                       # Number of branches fetched (Count)
system.cpu.fetchStats0.branchRate            0.019951                       # Number of branch fetches per cycle (Ratio)
system.cpu.fetchStats0.numFetchSuspends             0                       # Number of times Execute suspended instruction fetching (Count)
system.cpu.icache.demandHits::cpu.inst        3007376                       # number of demand (read+write) hits (Count)
system.cpu.icache.demandHits::total           3007376                       # number of demand (read+write) hits (Count)
system.cpu.icache.overallHits::cpu.inst       3007376                       # number of overall hits (Count)
system.cpu.icache.overallHits::total          3007376                       # number of overall hits (Count)
system.cpu.icache.demandMisses::cpu.inst         1343                       # number of demand (read+write) misses (Count)
system.cpu.icache.demandMisses::total            1343                       # number of demand (read+write) misses (Count)
system.cpu.icache.overallMisses::cpu.inst         1343                       # number of overall misses (Count)
system.cpu.icache.overallMisses::total           1343                       # number of overall misses (Count)
system.cpu.icache.demandMissLatency::cpu.inst    124312000                       # number of demand (read+write) miss ticks (Tick)
system.cpu.icache.demandMissLatency::total    124312000                       # number of demand (read+write) miss ticks (Tick)
system.cpu.icache.overallMissLatency::cpu.inst    124312000                       # number of overall miss ticks (Tick)
system.cpu.icache.overallMissLatency::total    124312000                       # number of overall miss ticks (Tick)
system.cpu.icache.demandAccesses::cpu.inst      3008719                       # number of demand (read+write) accesses (Count)
system.cpu.icache.demandAccesses::total       3008719                       # number of demand (read+write) accesses (Count)
system.cpu.icache.overallAccesses::cpu.inst      3008719                       # number of overall (read+write) accesses (Count)
system.cpu.icache.overallAccesses::total      3008719                       # number of overall (read+write) accesses (Count)
system.cpu.icache.demandMissRate::cpu.inst     0.000446                       # miss rate for demand accesses (Ratio)
system.cpu.icache.demandMissRate::total      0.000446                       # miss rate for demand accesses (Ratio)
system.cpu.icache.overallMissRate::cpu.inst     0.000446                       # miss rate for overall accesses (Ratio)
system.cpu.icache.overallMissRate::total     0.000446                       # miss rate for overall accesses (Ratio)
system.cpu.icache.demandAvgMissLatency::cpu.inst 92562.918838                       # average overall miss latency in ticks ((Tick/Count))
system.cpu.icache.demandAvgMissLatency::total 92562.918838                       # average overall miss latency in ticks ((Tick/Count))
system.cpu.icache.overallAvgMissLatency::cpu.inst 92562.918838                       # average overall miss latency ((Tick/Count))
system.cpu.icache.overallAvgMissLatency::total 92562.918838                       # average overall miss latency ((Tick/Count))
system.cpu.icache.blockedCycles::no_mshrs            0                       # number of cycles access was blocked (Cycle)
system.cpu.icache.blockedCycles::no_targets            0                       # number of cycles access was blocked (Cycle)
system.cpu.icache.blockedCauses::no_mshrs            0                       # number of times access was blocked (Count)
system.cpu.icache.blockedCauses::no_targets            0                       # number of times access was blocked (Count)
system.cpu.icache.avgBlocked::no_mshrs            nan                       # average number of cycles each access was blocked ((Cycle/Count))
system.cpu.icache.avgBlocked::no_targets          nan                       # average number of cycles each access was blocked ((Cycle/Count))
system.cpu.icache.demandMshrMisses::cpu.inst         1343                       # number of demand (read+write) MSHR misses (Count)
system.cpu.icache.demandMshrMisses::total         1343                       # number of demand (read+write) MSHR misses (Count)
system.cpu.icache.overallMshrMisses::cpu.inst         1343                       # number of overall MSHR misses (Count)
system.cpu.icache.overallMshrMisses::total         1343                       # number of overall MSHR misses (Count)
system.cpu.icache.demandMshrMissLatency::cpu.inst    121626000                       # number of demand (read+write) MSHR miss ticks (Tick)
system.cpu.icache.demandMshrMissLatency::total    121626000                       # number of demand (read+write) MSHR miss ticks (Tick)
system.cpu.icache.overallMshrMissLatency::cpu.inst    121626000                       # number of overall MSHR miss ticks (Tick)
system.cpu.icache.overallMshrMissLatency::total    121626000                       # number of overall MSHR miss ticks (Tick)
system.cpu.icache.demandMshrMissRate::cpu.inst     0.000446                       # mshr miss ratio for demand accesses (Ratio)
system.cpu.icache.demandMshrMissRate::total     0.000446                       # mshr miss ratio for demand accesses (Ratio)
system.cpu.icache.overallMshrMissRate::cpu.inst     0.000446                       # mshr miss ratio for overall accesses (Ratio)
system.cpu.icache.overallMshrMissRate::total     0.000446                       # mshr miss ratio for overall accesses (Ratio)
system.cpu.icache.demandAvgMshrMissLatency::cpu.inst 90562.918838                       # average overall mshr miss latency ((Tick/Count))
system.cpu.icache.demandAvgMshrMissLatency::total 90562.918838                       # average overall mshr miss latency ((Tick/Count))
system.cpu.icache.overallAvgMshrMissLatency::cpu.inst 90562.918838                       # average overall mshr miss latency ((Tick/Count))
system.cpu.icache.overallAvgMshrMissLatency::total 90562.918838                       # average overall mshr miss latency ((Tick/Count))
system.cpu.icache.replacements                   1087                       # number of replacements (Count)
system.cpu.icache.ReadReq.hits::cpu.inst      3007376                       # number of ReadReq hits (Count)
system.cpu.icache.ReadReq.hits::total         3007376                       # number of ReadReq hits (Count)
system.cpu.icache.ReadReq.misses::cpu.inst         1343                       # number of ReadReq misses (Count)
system.cpu.icache.ReadReq.misses::total          1343                       # number of ReadReq misses (Count)
system.cpu.icache.ReadReq.missLatency::cpu.inst    124312000                       # number of ReadReq miss ticks (Tick)
system.cpu.icache.ReadReq.missLatency::total    124312000                       # number of ReadReq miss ticks (Tick)
system.cpu.icache.ReadReq.accesses::cpu.inst      3008719                       # number of ReadReq accesses(hits+misses) (Count)
system.cpu.icache.ReadReq.accesses::total      3008719                       # number of ReadReq accesses(hits+misses) (Count)
system.cpu.icache.ReadReq.missRate::cpu.inst     0.000446                       # miss rate for ReadReq accesses (Ratio)
system.cpu.icache.ReadReq.missRate::total     0.000446                       # miss rate for ReadReq accesses (Ratio)
system.cpu.icache.ReadReq.avgMissLatency::cpu.inst 92562.918838                       # average ReadReq miss latency ((Tick/Count))
system.cpu.icache.ReadReq.avgMissLatency::total 92562.918838                       # average ReadReq miss latency ((Tick/Count))
system.cpu.icache.ReadReq.mshrMisses::cpu.inst         1343                       # number of ReadReq MSHR misses (Count)
system.cpu.icache.ReadReq.mshrMisses::total         1343                       # number of ReadReq MSHR misses (Count)
system.cpu.icache.ReadReq.mshrMissLatency::cpu.inst    121626000                       # number of ReadReq MSHR miss ticks (Tick)
system.cpu.icache.ReadReq.mshrMissLatency::total    121626000                       # number of ReadReq MSHR miss ticks (Tick)
system.cpu.icache.ReadReq.mshrMissRate::cpu.inst     0.000446                       # mshr miss rate for ReadReq accesses (Ratio)
system.cpu.icache.ReadReq.mshrMissRate::total     0.000446                       # mshr miss rate for ReadReq accesses (Ratio)
system.cpu.icache.ReadReq.avgMshrMissLatency::cpu.inst 90562.918838                       # average ReadReq mshr miss latency ((Tick/Count))
system.cpu.icache.ReadReq.avgMshrMissLatency::total 90562.918838                       # average ReadReq mshr miss latency ((Tick/Count))
system.cpu.icache.power_state.pwrStateResidencyTicks::UNDEFINED  10989658000                       # Cumulative time (in ticks) in various power states (Tick)
system.cpu.icache.tags.tagsInUse           254.728868                       # Average ticks per tags in use ((Tick/Count))
system.cpu.icache.tags.totalRefs              1345637                       # Total number of references to valid blocks. (Count)
system.cpu.icache.tags.sampledRefs               1087                       # Sample count of references to valid blocks. (Count)
system.cpu.icache.tags.avgRefs            1237.936523                       # Average number of references to valid blocks. ((Count/Count))
system.cpu.icache.tags.warmupTick              107000                       # The tick when the warmup percentage was hit. (Tick)
system.cpu.icache.tags.occupancies::cpu.inst   254.728868                       # Average occupied blocks per tick, per requestor ((Count/Tick))
system.cpu.icache.tags.avgOccs::cpu.inst     0.995035                       # Average percentage of cache occupancy ((Ratio/Tick))
system.cpu.icache.tags.avgOccs::total        0.995035                       # Average percentage of cache occupancy ((Ratio/Tick))
system.cpu.icache.tags.occupanciesTaskId::1024          256                       # Occupied blocks per task id (Count)
system.cpu.icache.tags.ageTaskId_1024::0           46                       # Occupied blocks per task id, per block age (Count)
system.cpu.icache.tags.ageTaskId_1024::1           55                       # Occupied blocks per task id, per block age (Count)
system.cpu.icache.tags.ageTaskId_1024::3           78                       # Occupied blocks per task id, per block age (Count)
system.cpu.icache.tags.ageTaskId_1024::4           77                       # Occupied blocks per task id, per block age (Count)
system.cpu.icache.tags.ratioOccsTaskId::1024            1                       # Ratio of occupied blocks and all blocks, per task id (Ratio)
system.cpu.icache.tags.tagAccesses            6018781                       # Number of tag accesses (Count)
system.cpu.icache.tags.dataAccesses           6018781                       # Number of data accesses (Count)
system.cpu.icache.tags.power_state.pwrStateResidencyTicks::UNDEFINED  10989658000                       # Cumulative time (in ticks) in various power states (Tick)
system.cpu.interrupts.clk_domain.clock          16000                       # Clock period in ticks (Tick)
system.cpu.mmu.dtb.rdAccesses                  925690                       # TLB accesses on read requests (Count)
system.cpu.mmu.dtb.wrAccesses                  412627                       # TLB accesses on write requests (Count)
system.cpu.mmu.dtb.rdMisses                       679                       # TLB misses on read requests (Count)
system.cpu.mmu.dtb.wrMisses                       172                       # TLB misses on write requests (Count)
system.cpu.mmu.dtb.walker.power_state.pwrStateResidencyTicks::UNDEFINED  10989658000                       # Cumulative time (in ticks) in various power states (Tick)
system.cpu.mmu.itb.rdAccesses                       0                       # TLB accesses on read requests (Count)
system.cpu.mmu.itb.wrAccesses                 3008758                       # TLB accesses on write requests (Count)
system.cpu.mmu.itb.rdMisses                         0                       # TLB misses on read requests (Count)
system.cpu.mmu.itb.wrMisses                       175                       # TLB misses on write requests (Count)
system.cpu.mmu.itb.walker.power_state.pwrStateResidencyTicks::UNDEFINED  10989658000                       # Cumulative time (in ticks) in various power states (Tick)
system.cpu.power_state.pwrStateResidencyTicks::ON  10989658000                       # Cumulative time (in ticks) in various power states (Tick)
system.cpu.thread_0.numInsts                        0                       # Number of Instructions committed (Count)
system.cpu.thread_0.numOps                          0                       # Number of Ops committed (Count)
system.cpu.thread_0.numMemRefs                      0                       # Number of Memory References (Count)
system.cpu.workload.numSyscalls                    38                       # Number of system calls (Count)
system.l2bus.transDist::ReadResp                 9233                       # Transaction distribution (Count)
system.l2bus.transDist::WritebackDirty          24279                       # Transaction distribution (Count)
system.l2bus.transDist::CleanEvict              14622                       # Transaction distribution (Count)
system.l2bus.transDist::ReadExReq               13086                       # Transaction distribution (Count)
system.l2bus.transDist::ReadExResp              13086                       # Transaction distribution (Count)
system.l2bus.transDist::ReadSharedReq            9233                       # Transaction distribution (Count)
system.l2bus.pktCount_system.cpu.icache.mem_side_port::system.l2cache.cpu_side_port         3773                       # Packet count per connected requestor and responder (Count)
system.l2bus.pktCount_system.cpu.dcache.mem_side_port::system.l2cache.cpu_side_port        61904                       # Packet count per connected requestor and responder (Count)
system.l2bus.pktCount::total                    65677                       # Packet count per connected requestor and responder (Count)
system.l2bus.pktSize_system.cpu.icache.mem_side_port::system.l2cache.cpu_side_port        85952                       # Cumulative packet size per connected requestor and responder (Byte)
system.l2bus.pktSize_system.cpu.dcache.mem_side_port::system.l2cache.cpu_side_port      2171264                       # Cumulative packet size per connected requestor and responder (Byte)
system.l2bus.pktSize::total                   2257216                       # Cumulative packet size per connected requestor and responder (Byte)
system.l2bus.snoops                             17862                       # Total snoops (Count)
system.l2bus.snoopTraffic                      725056                       # Total snoop traffic (Byte)
system.l2bus.snoopFanout::samples               40181                       # Request fanout histogram (Count)
system.l2bus.snoopFanout::mean               0.009532                       # Request fanout histogram (Count)
system.l2bus.snoopFanout::stdev              0.097166                       # Request fanout histogram (Count)
system.l2bus.snoopFanout::underflows                0      0.00%      0.00% # Request fanout histogram (Count)
system.l2bus.snoopFanout::0                     39798     99.05%     99.05% # Request fanout histogram (Count)
system.l2bus.snoopFanout::1                       383      0.95%    100.00% # Request fanout histogram (Count)
system.l2bus.snoopFanout::2                         0      0.00%    100.00% # Request fanout histogram (Count)
system.l2bus.snoopFanout::overflows                 0      0.00%    100.00% # Request fanout histogram (Count)
system.l2bus.snoopFanout::min_value                 0                       # Request fanout histogram (Count)
system.l2bus.snoopFanout::max_value                 1                       # Request fanout histogram (Count)
system.l2bus.snoopFanout::total                 40181                       # Request fanout histogram (Count)
system.l2bus.power_state.pwrStateResidencyTicks::UNDEFINED  10989658000                       # Cumulative time (in ticks) in various power states (Tick)
system.l2bus.reqLayer0.occupancy             69258000                       # Layer occupancy (ticks) (Tick)
system.l2bus.reqLayer0.utilization                0.0                       # Layer utilization (Ratio)
system.l2bus.respLayer0.occupancy             4029000                       # Layer occupancy (ticks) (Tick)
system.l2bus.respLayer0.utilization               0.0                       # Layer utilization (Ratio)
system.l2bus.respLayer1.occupancy            62928000                       # Layer occupancy (ticks) (Tick)
system.l2bus.respLayer1.utilization               0.0                       # Layer utilization (Ratio)
system.l2bus.snoop_filter.totRequests           43358                       # Total number of requests made to the snoop filter. (Count)
system.l2bus.snoop_filter.hitSingleRequests        21039                       # Number of requests hitting in the snoop filter with a single holder of the requested data. (Count)
system.l2bus.snoop_filter.hitMultiRequests            0                       # Number of requests hitting in the snoop filter with multiple (>1) holders of the requested data. (Count)
system.l2bus.snoop_filter.totSnoops               383                       # Total number of snoops made to the snoop filter. (Count)
system.l2bus.snoop_filter.hitSingleSnoops          383                       # Number of snoops hitting in the snoop filter with a single holder of the requested data. (Count)
system.l2bus.snoop_filter.hitMultiSnoops            0                       # Number of snoops hitting in the snoop filter with multiple (>1) holders of the requested data. (Count)
system.l2cache.demandHits::cpu.inst               167                       # number of demand (read+write) hits (Count)
system.l2cache.demandHits::cpu.data               201                       # number of demand (read+write) hits (Count)
system.l2cache.demandHits::total                  368                       # number of demand (read+write) hits (Count)
system.l2cache.overallHits::cpu.inst              167                       # number of overall hits (Count)
system.l2cache.overallHits::cpu.data              201                       # number of overall hits (Count)
system.l2cache.overallHits::total                 368                       # number of overall hits (Count)
system.l2cache.demandMisses::cpu.inst            1176                       # number of demand (read+write) misses (Count)
system.l2cache.demandMisses::cpu.data           20775                       # number of demand (read+write) misses (Count)
system.l2cache.demandMisses::total              21951                       # number of demand (read+write) misses (Count)
system.l2cache.overallMisses::cpu.inst           1176                       # number of overall misses (Count)
system.l2cache.overallMisses::cpu.data          20775                       # number of overall misses (Count)
system.l2cache.overallMisses::total             21951                       # number of overall misses (Count)
system.l2cache.demandMissLatency::cpu.inst    114083000                       # number of demand (read+write) miss ticks (Tick)
system.l2cache.demandMissLatency::cpu.data   2107350000                       # number of demand (read+write) miss ticks (Tick)
system.l2cache.demandMissLatency::total    2221433000                       # number of demand (read+write) miss ticks (Tick)
system.l2cache.overallMissLatency::cpu.inst    114083000                       # number of overall miss ticks (Tick)
system.l2cache.overallMissLatency::cpu.data   2107350000                       # number of overall miss ticks (Tick)
system.l2cache.overallMissLatency::total   2221433000                       # number of overall miss ticks (Tick)
system.l2cache.demandAccesses::cpu.inst          1343                       # number of demand (read+write) accesses (Count)
system.l2cache.demandAccesses::cpu.data         20976                       # number of demand (read+write) accesses (Count)
system.l2cache.demandAccesses::total            22319                       # number of demand (read+write) accesses (Count)
system.l2cache.overallAccesses::cpu.inst         1343                       # number of overall (read+write) accesses (Count)
system.l2cache.overallAccesses::cpu.data        20976                       # number of overall (read+write) accesses (Count)
system.l2cache.overallAccesses::total           22319                       # number of overall (read+write) accesses (Count)
system.l2cache.demandMissRate::cpu.inst      0.875652                       # miss rate for demand accesses (Ratio)
system.l2cache.demandMissRate::cpu.data      0.990418                       # miss rate for demand accesses (Ratio)
system.l2cache.demandMissRate::total         0.983512                       # miss rate for demand accesses (Ratio)
system.l2cache.overallMissRate::cpu.inst     0.875652                       # miss rate for overall accesses (Ratio)
system.l2cache.overallMissRate::cpu.data     0.990418                       # miss rate for overall accesses (Ratio)
system.l2cache.overallMissRate::total        0.983512                       # miss rate for overall accesses (Ratio)
system.l2cache.demandAvgMissLatency::cpu.inst 97009.353741                       # average overall miss latency in ticks ((Tick/Count))
system.l2cache.demandAvgMissLatency::cpu.data 101436.823105                       # average overall miss latency in ticks ((Tick/Count))
system.l2cache.demandAvgMissLatency::total 101199.626441                       # average overall miss latency in ticks ((Tick/Count))
system.l2cache.overallAvgMissLatency::cpu.inst 97009.353741                       # average overall miss latency ((Tick/Count))
system.l2cache.overallAvgMissLatency::cpu.data 101436.823105                       # average overall miss latency ((Tick/Count))
system.l2cache.overallAvgMissLatency::total 101199.626441                       # average overall miss latency ((Tick/Count))
system.l2cache.blockedCycles::no_mshrs              0                       # number of cycles access was blocked (Cycle)
system.l2cache.blockedCycles::no_targets            0                       # number of cycles access was blocked (Cycle)
system.l2cache.blockedCauses::no_mshrs              0                       # number of times access was blocked (Count)
system.l2cache.blockedCauses::no_targets            0                       # number of times access was blocked (Count)
system.l2cache.avgBlocked::no_mshrs               nan                       # average number of cycles each access was blocked ((Cycle/Count))
system.l2cache.avgBlocked::no_targets             nan                       # average number of cycles each access was blocked ((Cycle/Count))
system.l2cache.writebacks::writebacks           11329                       # number of writebacks (Count)
system.l2cache.writebacks::total                11329                       # number of writebacks (Count)
system.l2cache.demandMshrMisses::cpu.inst         1176                       # number of demand (read+write) MSHR misses (Count)
system.l2cache.demandMshrMisses::cpu.data        20775                       # number of demand (read+write) MSHR misses (Count)
system.l2cache.demandMshrMisses::total          21951                       # number of demand (read+write) MSHR misses (Count)
system.l2cache.overallMshrMisses::cpu.inst         1176                       # number of overall MSHR misses (Count)
system.l2cache.overallMshrMisses::cpu.data        20775                       # number of overall MSHR misses (Count)
system.l2cache.overallMshrMisses::total         21951                       # number of overall MSHR misses (Count)
system.l2cache.demandMshrMissLatency::cpu.inst     90563000                       # number of demand (read+write) MSHR miss ticks (Tick)
system.l2cache.demandMshrMissLatency::cpu.data   1691850000                       # number of demand (read+write) MSHR miss ticks (Tick)
system.l2cache.demandMshrMissLatency::total   1782413000                       # number of demand (read+write) MSHR miss ticks (Tick)
system.l2cache.overallMshrMissLatency::cpu.inst     90563000                       # number of overall MSHR miss ticks (Tick)
system.l2cache.overallMshrMissLatency::cpu.data   1691850000                       # number of overall MSHR miss ticks (Tick)
system.l2cache.overallMshrMissLatency::total   1782413000                       # number of overall MSHR miss ticks (Tick)
system.l2cache.demandMshrMissRate::cpu.inst     0.875652                       # mshr miss ratio for demand accesses (Ratio)
system.l2cache.demandMshrMissRate::cpu.data     0.990418                       # mshr miss ratio for demand accesses (Ratio)
system.l2cache.demandMshrMissRate::total     0.983512                       # mshr miss ratio for demand accesses (Ratio)
system.l2cache.overallMshrMissRate::cpu.inst     0.875652                       # mshr miss ratio for overall accesses (Ratio)
system.l2cache.overallMshrMissRate::cpu.data     0.990418                       # mshr miss ratio for overall accesses (Ratio)
system.l2cache.overallMshrMissRate::total     0.983512                       # mshr miss ratio for overall accesses (Ratio)
system.l2cache.demandAvgMshrMissLatency::cpu.inst 77009.353741                       # average overall mshr miss latency ((Tick/Count))
system.l2cache.demandAvgMshrMissLatency::cpu.data 81436.823105                       # average overall mshr miss latency ((Tick/Count))
system.l2cache.demandAvgMshrMissLatency::total 81199.626441                       # average overall mshr miss latency ((Tick/Count))
system.l2cache.overallAvgMshrMissLatency::cpu.inst 77009.353741                       # average overall mshr miss latency ((Tick/Count))
system.l2cache.overallAvgMshrMissLatency::cpu.data 81436.823105                       # average overall mshr miss latency ((Tick/Count))
system.l2cache.overallAvgMshrMissLatency::total 81199.626441                       # average overall mshr miss latency ((Tick/Count))
system.l2cache.replacements                     17862                       # number of replacements (Count)
system.l2cache.CleanEvict.mshrMisses::writebacks          220                       # number of CleanEvict MSHR misses (Count)
system.l2cache.CleanEvict.mshrMisses::total          220                       # number of CleanEvict MSHR misses (Count)
system.l2cache.CleanEvict.mshrMissRate::writebacks          inf                       # mshr miss rate for CleanEvict accesses (Ratio)
system.l2cache.CleanEvict.mshrMissRate::total          inf                       # mshr miss rate for CleanEvict accesses (Ratio)
system.l2cache.ReadExReq.hits::cpu.data            67                       # number of ReadExReq hits (Count)
system.l2cache.ReadExReq.hits::total               67                       # number of ReadExReq hits (Count)
system.l2cache.ReadExReq.misses::cpu.data        13019                       # number of ReadExReq misses (Count)
system.l2cache.ReadExReq.misses::total          13019                       # number of ReadExReq misses (Count)
system.l2cache.ReadExReq.missLatency::cpu.data   1310553000                       # number of ReadExReq miss ticks (Tick)
system.l2cache.ReadExReq.missLatency::total   1310553000                       # number of ReadExReq miss ticks (Tick)
system.l2cache.ReadExReq.accesses::cpu.data        13086                       # number of ReadExReq accesses(hits+misses) (Count)
system.l2cache.ReadExReq.accesses::total        13086                       # number of ReadExReq accesses(hits+misses) (Count)
system.l2cache.ReadExReq.missRate::cpu.data     0.994880                       # miss rate for ReadExReq accesses (Ratio)
system.l2cache.ReadExReq.missRate::total     0.994880                       # miss rate for ReadExReq accesses (Ratio)
system.l2cache.ReadExReq.avgMissLatency::cpu.data 100664.643982                       # average ReadExReq miss latency ((Tick/Count))
system.l2cache.ReadExReq.avgMissLatency::total 100664.643982                       # average ReadExReq miss latency ((Tick/Count))
system.l2cache.ReadExReq.mshrMisses::cpu.data        13019                       # number of ReadExReq MSHR misses (Count)
system.l2cache.ReadExReq.mshrMisses::total        13019                       # number of ReadExReq MSHR misses (Count)
system.l2cache.ReadExReq.mshrMissLatency::cpu.data   1050173000                       # number of ReadExReq MSHR miss ticks (Tick)
system.l2cache.ReadExReq.mshrMissLatency::total   1050173000                       # number of ReadExReq MSHR miss ticks (Tick)
system.l2cache.ReadExReq.mshrMissRate::cpu.data     0.994880                       # mshr miss rate for ReadExReq accesses (Ratio)
system.l2cache.ReadExReq.mshrMissRate::total     0.994880                       # mshr miss rate for ReadExReq accesses (Ratio)
system.l2cache.ReadExReq.avgMshrMissLatency::cpu.data 80664.643982                       # average ReadExReq mshr miss latency ((Tick/Count))
system.l2cache.ReadExReq.avgMshrMissLatency::total 80664.643982                       # average ReadExReq mshr miss latency ((Tick/Count))
system.l2cache.ReadSharedReq.hits::cpu.inst          167                       # number of ReadSharedReq hits (Count)
system.l2cache.ReadSharedReq.hits::cpu.data          134                       # number of ReadSharedReq hits (Count)
system.l2cache.ReadSharedReq.hits::total          301                       # number of ReadSharedReq hits (Count)
system.l2cache.ReadSharedReq.misses::cpu.inst         1176                       # number of ReadSharedReq misses (Count)
system.l2cache.ReadSharedReq.misses::cpu.data         7756                       # number of ReadSharedReq misses (Count)
system.l2cache.ReadSharedReq.misses::total         8932                       # number of ReadSharedReq misses (Count)
system.l2cache.ReadSharedReq.missLatency::cpu.inst    114083000                       # number of ReadSharedReq miss ticks (Tick)
system.l2cache.ReadSharedReq.missLatency::cpu.data    796797000                       # number of ReadSharedReq miss ticks (Tick)
system.l2cache.ReadSharedReq.missLatency::total    910880000                       # number of ReadSharedReq miss ticks (Tick)
system.l2cache.ReadSharedReq.accesses::cpu.inst         1343                       # number of ReadSharedReq accesses(hits+misses) (Count)
system.l2cache.ReadSharedReq.accesses::cpu.data         7890                       # number of ReadSharedReq accesses(hits+misses) (Count)
system.l2cache.ReadSharedReq.accesses::total         9233                       # number of ReadSharedReq accesses(hits+misses) (Count)
system.l2cache.ReadSharedReq.missRate::cpu.inst     0.875652                       # miss rate for ReadSharedReq accesses (Ratio)
system.l2cache.ReadSharedReq.missRate::cpu.data     0.983016                       # miss rate for ReadSharedReq accesses (Ratio)
system.l2cache.ReadSharedReq.missRate::total     0.967400                       # miss rate for ReadSharedReq accesses (Ratio)
system.l2cache.ReadSharedReq.avgMissLatency::cpu.inst 97009.353741                       # average ReadSharedReq miss latency ((Tick/Count))
system.l2cache.ReadSharedReq.avgMissLatency::cpu.data 102732.980918                       # average ReadSharedReq miss latency ((Tick/Count))
system.l2cache.ReadSharedReq.avgMissLatency::total 101979.399910                       # average ReadSharedReq miss latency ((Tick/Count))
system.l2cache.ReadSharedReq.mshrMisses::cpu.inst         1176                       # number of ReadSharedReq MSHR misses (Count)
system.l2cache.ReadSharedReq.mshrMisses::cpu.data         7756                       # number of ReadSharedReq MSHR misses (Count)
system.l2cache.ReadSharedReq.mshrMisses::total         8932                       # number of ReadSharedReq MSHR misses (Count)
system.l2cache.ReadSharedReq.mshrMissLatency::cpu.inst     90563000                       # number of ReadSharedReq MSHR miss ticks (Tick)
system.l2cache.ReadSharedReq.mshrMissLatency::cpu.data    641677000                       # number of ReadSharedReq MSHR miss ticks (Tick)
system.l2cache.ReadSharedReq.mshrMissLatency::total    732240000                       # number of ReadSharedReq MSHR miss ticks (Tick)
system.l2cache.ReadSharedReq.mshrMissRate::cpu.inst     0.875652                       # mshr miss rate for ReadSharedReq accesses (Ratio)
system.l2cache.ReadSharedReq.mshrMissRate::cpu.data     0.983016                       # mshr miss rate for ReadSharedReq accesses (Ratio)
system.l2cache.ReadSharedReq.mshrMissRate::total     0.967400                       # mshr miss rate for ReadSharedReq accesses (Ratio)
system.l2cache.ReadSharedReq.avgMshrMissLatency::cpu.inst 77009.353741                       # average ReadSharedReq mshr miss latency ((Tick/Count))
system.l2cache.ReadSharedReq.avgMshrMissLatency::cpu.data 82732.980918                       # average ReadSharedReq mshr miss latency ((Tick/Count))
system.l2cache.ReadSharedReq.avgMshrMissLatency::total 81979.399910                       # average ReadSharedReq mshr miss latency ((Tick/Count))
system.l2cache.WritebackDirty.hits::writebacks        12950                       # number of WritebackDirty hits (Count)
system.l2cache.WritebackDirty.hits::total        12950                       # number of WritebackDirty hits (Count)
system.l2cache.WritebackDirty.accesses::writebacks        12950                       # number of WritebackDirty accesses(hits+misses) (Count)
system.l2cache.WritebackDirty.accesses::total        12950                       # number of WritebackDirty accesses(hits+misses) (Count)
system.l2cache.power_state.pwrStateResidencyTicks::UNDEFINED  10989658000                       # Cumulative time (in ticks) in various power states (Tick)
system.l2cache.tags.tagsInUse             3871.037311                       # Average ticks per tags in use ((Tick/Count))
system.l2cache.tags.totalRefs                   36068                       # Total number of references to valid blocks. (Count)
system.l2cache.tags.sampledRefs                 17862                       # Sample count of references to valid blocks. (Count)
system.l2cache.tags.avgRefs                  2.019259                       # Average number of references to valid blocks. ((Count/Count))
system.l2cache.tags.warmupTick                  86000                       # The tick when the warmup percentage was hit. (Tick)
system.l2cache.tags.occupancies::writebacks     1.352678                       # Average occupied blocks per tick, per requestor ((Count/Tick))
system.l2cache.tags.occupancies::cpu.inst   159.665162                       # Average occupied blocks per tick, per requestor ((Count/Tick))
system.l2cache.tags.occupancies::cpu.data  3710.019471                       # Average occupied blocks per tick, per requestor ((Count/Tick))
system.l2cache.tags.avgOccs::writebacks      0.000330                       # Average percentage of cache occupancy ((Ratio/Tick))
system.l2cache.tags.avgOccs::cpu.inst        0.038981                       # Average percentage of cache occupancy ((Ratio/Tick))
system.l2cache.tags.avgOccs::cpu.data        0.905766                       # Average percentage of cache occupancy ((Ratio/Tick))
system.l2cache.tags.avgOccs::total           0.945077                       # Average percentage of cache occupancy ((Ratio/Tick))
system.l2cache.tags.occupanciesTaskId::1024         4096                       # Occupied blocks per task id (Count)
system.l2cache.tags.ageTaskId_1024::0              72                       # Occupied blocks per task id, per block age (Count)
system.l2cache.tags.ageTaskId_1024::1             261                       # Occupied blocks per task id, per block age (Count)
system.l2cache.tags.ageTaskId_1024::2            1836                       # Occupied blocks per task id, per block age (Count)
system.l2cache.tags.ageTaskId_1024::3            1927                       # Occupied blocks per task id, per block age (Count)
system.l2cache.tags.ratioOccsTaskId::1024            1                       # Ratio of occupied blocks and all blocks, per task id (Ratio)
system.l2cache.tags.tagAccesses                368822                       # Number of tag accesses (Count)
system.l2cache.tags.dataAccesses               368822                       # Number of data accesses (Count)
system.l2cache.tags.power_state.pwrStateResidencyTicks::UNDEFINED  10989658000                       # Cumulative time (in ticks) in various power states (Tick)
system.mem_ctrl.avgPriority_writebacks::samples     11329.00                       # Average QoS priority value for accepted requests (Count)
system.mem_ctrl.avgPriority_cpu.inst::samples      1176.00                       # Average QoS priority value for accepted requests (Count)
system.mem_ctrl.avgPriority_cpu.data::samples     20774.00                       # Average QoS priority value for accepted requests (Count)
system.mem_ctrl.priorityMinLatency       0.000000018750                       # per QoS priority minimum request to response latency (Second)
system.mem_ctrl.priorityMaxLatency       0.001785698500                       # per QoS priority maximum request to response latency (Second)
system.mem_ctrl.numReadWriteTurnArounds           651                       # Number of turnarounds from READ to WRITE (Count)
system.mem_ctrl.numWriteReadTurnArounds           651                       # Number of turnarounds from WRITE to READ (Count)
system.mem_ctrl.numStayReadState                57823                       # Number of times bus staying in READ state (Count)
system.mem_ctrl.numStayWriteState               10673                       # Number of times bus staying in WRITE state (Count)
system.mem_ctrl.readReqs                        21951                       # Number of read requests accepted (Count)
system.mem_ctrl.writeReqs                       11329                       # Number of write requests accepted (Count)
system.mem_ctrl.readBursts                      21951                       # Number of controller read bursts, including those serviced by the write queue (Count)
system.mem_ctrl.writeBursts                     11329                       # Number of controller write bursts, including those merged in the write queue (Count)
system.mem_ctrl.servicedByWrQ                       1                       # Number of controller read bursts serviced by the write queue (Count)
system.mem_ctrl.mergedWrBursts                      0                       # Number of controller write bursts merged with an existing one (Count)
system.mem_ctrl.neitherReadNorWriteReqs             0                       # Number of requests that are neither read nor write (Count)
system.mem_ctrl.avgRdQLen                        1.00                       # Average read queue length when enqueuing ((Count/Tick))
system.mem_ctrl.avgWrQLen                       23.52                       # Average write queue length when enqueuing ((Count/Tick))
system.mem_ctrl.numRdRetry                          0                       # Number of times read queue was full causing retry (Count)
system.mem_ctrl.numWrRetry                          0                       # Number of times write queue was full causing retry (Count)
system.mem_ctrl.readPktSize::0                      0                       # Read request sizes (log2) (Count)
system.mem_ctrl.readPktSize::1                      0                       # Read request sizes (log2) (Count)
system.mem_ctrl.readPktSize::2                      0                       # Read request sizes (log2) (Count)
system.mem_ctrl.readPktSize::3                      0                       # Read request sizes (log2) (Count)
system.mem_ctrl.readPktSize::4                      0                       # Read request sizes (log2) (Count)
system.mem_ctrl.readPktSize::5                      0                       # Read request sizes (log2) (Count)
system.mem_ctrl.readPktSize::6                  21951                       # Read request sizes (log2) (Count)
system.mem_ctrl.writePktSize::0                     0                       # Write request sizes (log2) (Count)
system.mem_ctrl.writePktSize::1                     0                       # Write request sizes (log2) (Count)
system.mem_ctrl.writePktSize::2                     0                       # Write request sizes (log2) (Count)
system.mem_ctrl.writePktSize::3                     0                       # Write request sizes (log2) (Count)
system.mem_ctrl.writePktSize::4                     0                       # Write request sizes (log2) (Count)
system.mem_ctrl.writePktSize::5                     0                       # Write request sizes (log2) (Count)
system.mem_ctrl.writePktSize::6                 11329                       # Write request sizes (log2) (Count)
system.mem_ctrl.rdQLenPdf::0                    21950                       # What read queue length does an incoming req see (Count)
system.mem_ctrl.rdQLenPdf::1                        0                       # What read queue length does an incoming req see (Count)
system.mem_ctrl.rdQLenPdf::2                        0                       # What read queue length does an incoming req see (Count)
system.mem_ctrl.rdQLenPdf::3                        0                       # What read queue length does an incoming req see (Count)
system.mem_ctrl.rdQLenPdf::4                        0                       # What read queue length does an incoming req see (Count)
system.mem_ctrl.rdQLenPdf::5                        0                       # What read queue length does an incoming req see (Count)
system.mem_ctrl.rdQLenPdf::6                        0                       # What read queue length does an incoming req see (Count)
system.mem_ctrl.rdQLenPdf::7                        0                       # What read queue length does an incoming req see (Count)
system.mem_ctrl.rdQLenPdf::8                        0                       # What read queue length does an incoming req see (Count)
system.mem_ctrl.rdQLenPdf::9                        0                       # What read queue length does an incoming req see (Count)
system.mem_ctrl.rdQLenPdf::10                       0                       # What read queue length does an incoming req see (Count)
system.mem_ctrl.rdQLenPdf::11                       0                       # What read queue length does an incoming req see (Count)
system.mem_ctrl.rdQLenPdf::12                       0                       # What read queue length does an incoming req see (Count)
system.mem_ctrl.rdQLenPdf::13                       0                       # What read queue length does an incoming req see (Count)
system.mem_ctrl.rdQLenPdf::14                       0                       # What read queue length does an incoming req see (Count)
system.mem_ctrl.rdQLenPdf::15                       0                       # What read queue length does an incoming req see (Count)
system.mem_ctrl.rdQLenPdf::16                       0                       # What read queue length does an incoming req see (Count)
system.mem_ctrl.rdQLenPdf::17                       0                       # What read queue length does an incoming req see (Count)
system.mem_ctrl.rdQLenPdf::18                       0                       # What read queue length does an incoming req see (Count)
system.mem_ctrl.rdQLenPdf::19                       0                       # What read queue length does an incoming req see (Count)
system.mem_ctrl.rdQLenPdf::20                       0                       # What read queue length does an incoming req see (Count)
system.mem_ctrl.rdQLenPdf::21                       0                       # What read queue length does an incoming req see (Count)
[...]
system.mem_ctrl.dram.bytesWritten::total       725056                       # Number of bytes written to this memory (Byte)
system.mem_ctrl.dram.numReads::cpu.inst          1176                       # Number of read requests responded to by this memory (Count)
system.mem_ctrl.dram.numReads::cpu.data         20775                       # Number of read requests responded to by this memory (Count)
system.mem_ctrl.dram.numReads::total            21951                       # Number of read requests responded to by this memory (Count)
system.mem_ctrl.dram.numWrites::writebacks        11329                       # Number of write requests responded to by this memory (Count)
system.mem_ctrl.dram.numWrites::total           11329                       # Number of write requests responded to by this memory (Count)
system.mem_ctrl.dram.bwRead::cpu.inst         6848621                       # Total read bandwidth from this memory ((Byte/Second))
system.mem_ctrl.dram.bwRead::cpu.data       120986477                       # Total read bandwidth from this memory ((Byte/Second))
system.mem_ctrl.dram.bwRead::total          127835097                       # Total read bandwidth from this memory ((Byte/Second))
system.mem_ctrl.dram.bwInstRead::cpu.inst      6848621                       # Instruction read bandwidth from this memory ((Byte/Second))
system.mem_ctrl.dram.bwInstRead::total        6848621                       # Instruction read bandwidth from this memory ((Byte/Second))
system.mem_ctrl.dram.bwWrite::writebacks     65976211                       # Write bandwidth from this memory ((Byte/Second))
system.mem_ctrl.dram.bwWrite::total          65976211                       # Write bandwidth from this memory ((Byte/Second))
system.mem_ctrl.dram.bwTotal::writebacks     65976211                       # Total bandwidth to/from this memory ((Byte/Second))
system.mem_ctrl.dram.bwTotal::cpu.inst        6848621                       # Total bandwidth to/from this memory ((Byte/Second))
system.mem_ctrl.dram.bwTotal::cpu.data      120986477                       # Total bandwidth to/from this memory ((Byte/Second))
system.mem_ctrl.dram.bwTotal::total         193811309                       # Total bandwidth to/from this memory ((Byte/Second))
system.mem_ctrl.dram.readBursts                 21950                       # Number of DRAM read bursts (Count)
system.mem_ctrl.dram.writeBursts                11305                       # Number of DRAM write bursts (Count)
system.mem_ctrl.dram.perBankRdBursts::0          1482                       # Per bank write bursts (Count)
system.mem_ctrl.dram.perBankRdBursts::1          1551                       # Per bank write bursts (Count)
system.mem_ctrl.dram.perBankRdBursts::2          1340                       # Per bank write bursts (Count)
system.mem_ctrl.dram.perBankRdBursts::3          1385                       # Per bank write bursts (Count)
system.mem_ctrl.dram.perBankRdBursts::4          1299                       # Per bank write bursts (Count)
system.mem_ctrl.dram.perBankRdBursts::5          1282                       # Per bank write bursts (Count)
system.mem_ctrl.dram.perBankRdBursts::6          1267                       # Per bank write bursts (Count)
system.mem_ctrl.dram.perBankRdBursts::7          1303                       # Per bank write bursts (Count)
system.mem_ctrl.dram.perBankRdBursts::8          1305                       # Per bank write bursts (Count)
system.mem_ctrl.dram.perBankRdBursts::9          1369                       # Per bank write bursts (Count)
system.mem_ctrl.dram.perBankRdBursts::10         1288                       # Per bank write bursts (Count)
system.mem_ctrl.dram.perBankRdBursts::11         1476                       # Per bank write bursts (Count)
system.mem_ctrl.dram.perBankRdBursts::12         1391                       # Per bank write bursts (Count)
system.mem_ctrl.dram.perBankRdBursts::13         1334                       # Per bank write bursts (Count)
system.mem_ctrl.dram.perBankRdBursts::14         1434                       # Per bank write bursts (Count)
system.mem_ctrl.dram.perBankRdBursts::15         1444                       # Per bank write bursts (Count)
system.mem_ctrl.dram.perBankWrBursts::0           698                       # Per bank write bursts (Count)
system.mem_ctrl.dram.perBankWrBursts::1           716                       # Per bank write bursts (Count)
system.mem_ctrl.dram.perBankWrBursts::2           649                       # Per bank write bursts (Count)
system.mem_ctrl.dram.perBankWrBursts::3           659                       # Per bank write bursts (Count)
system.mem_ctrl.dram.perBankWrBursts::4           649                       # Per bank write bursts (Count)
system.mem_ctrl.dram.perBankWrBursts::5           653                       # Per bank write bursts (Count)
system.mem_ctrl.dram.perBankWrBursts::6           651                       # Per bank write bursts (Count)
system.mem_ctrl.dram.perBankWrBursts::7           661                       # Per bank write bursts (Count)
system.mem_ctrl.dram.perBankWrBursts::8           790                       # Per bank write bursts (Count)
system.mem_ctrl.dram.perBankWrBursts::9           779                       # Per bank write bursts (Count)
system.mem_ctrl.dram.perBankWrBursts::10          673                       # Per bank write bursts (Count)
system.mem_ctrl.dram.perBankWrBursts::11          779                       # Per bank write bursts (Count)
system.mem_ctrl.dram.perBankWrBursts::12          746                       # Per bank write bursts (Count)
system.mem_ctrl.dram.perBankWrBursts::13          677                       # Per bank write bursts (Count)
system.mem_ctrl.dram.perBankWrBursts::14          758                       # Per bank write bursts (Count)
system.mem_ctrl.dram.perBankWrBursts::15          767                       # Per bank write bursts (Count)
system.mem_ctrl.dram.totQLat                244002500                       # Total ticks spent queuing (Tick)
system.mem_ctrl.dram.totBusLat              109750000                       # Total ticks spent in databus transfers (Tick)
system.mem_ctrl.dram.totMemAccLat           655565000                       # Total ticks spent from burst creation until serviced by the DRAM (Tick)
system.mem_ctrl.dram.avgQLat                 11116.29                       # Average queueing delay per DRAM burst ((Tick/Count))
system.mem_ctrl.dram.avgBusLat                5000.00                       # Average bus latency per DRAM burst ((Tick/Count))
system.mem_ctrl.dram.avgMemAccLat            29866.29                       # Average memory access latency per DRAM burst ((Tick/Count))
system.mem_ctrl.dram.readRowHits                16548                       # Number of row buffer hits during reads (Count)
system.mem_ctrl.dram.writeRowHits                9750                       # Number of row buffer hits during writes (Count)
system.mem_ctrl.dram.readRowHitRate             75.39                       # Row buffer hit rate for reads (Ratio)
system.mem_ctrl.dram.writeRowHitRate            86.25                       # Row buffer hit rate for writes (Ratio)
system.mem_ctrl.dram.bytesPerActivate::samples         6949                       # Bytes accessed per row activation (Byte)
system.mem_ctrl.dram.bytesPerActivate::mean   306.046913                       # Bytes accessed per row activation (Byte)
system.mem_ctrl.dram.bytesPerActivate::gmean   187.068612                       # Bytes accessed per row activation (Byte)
system.mem_ctrl.dram.bytesPerActivate::stdev   290.350243                       # Bytes accessed per row activation (Byte)
system.mem_ctrl.dram.bytesPerActivate::0-127         2734     39.34%     39.34% # Bytes accessed per row activation (Byte)
system.mem_ctrl.dram.bytesPerActivate::128-255         1138     16.38%     55.72% # Bytes accessed per row activation (Byte)
system.mem_ctrl.dram.bytesPerActivate::256-383          511      7.35%     63.07% # Bytes accessed per row activation (Byte)
system.mem_ctrl.dram.bytesPerActivate::384-511          463      6.66%     69.74% # Bytes accessed per row activation (Byte)
system.mem_ctrl.dram.bytesPerActivate::512-639         1053     15.15%     84.89% # Bytes accessed per row activation (Byte)
system.mem_ctrl.dram.bytesPerActivate::640-767          400      5.76%     90.65% # Bytes accessed per row activation (Byte)
system.mem_ctrl.dram.bytesPerActivate::768-895          171      2.46%     93.11% # Bytes accessed per row activation (Byte)
system.mem_ctrl.dram.bytesPerActivate::896-1023           68      0.98%     94.09% # Bytes accessed per row activation (Byte)
system.mem_ctrl.dram.bytesPerActivate::1024-1151          411      5.91%    100.00% # Bytes accessed per row activation (Byte)
system.mem_ctrl.dram.bytesPerActivate::total         6949                       # Bytes accessed per row activation (Byte)
system.mem_ctrl.dram.bytesRead                1404800                       # Total bytes read (Byte)
system.mem_ctrl.dram.bytesWritten              723520                       # Total bytes written (Byte)
system.mem_ctrl.dram.avgRdBW               127.829274                       # Average DRAM read bandwidth in MiBytes/s ((Byte/Second))
system.mem_ctrl.dram.avgWrBW                65.836444                       # Average DRAM write bandwidth in MiBytes/s ((Byte/Second))
system.mem_ctrl.dram.peakBW                  12800.00                       # Theoretical peak bandwidth in MiByte/s ((Byte/Second))
system.mem_ctrl.dram.busUtil                     1.51                       # Data bus utilization in percentage (Ratio)
system.mem_ctrl.dram.busUtilRead                 1.00                       # Data bus utilization in percentage for reads (Ratio)
system.mem_ctrl.dram.busUtilWrite                0.51                       # Data bus utilization in percentage for writes (Ratio)
system.mem_ctrl.dram.pageHitRate                79.08                       # Row buffer hit rate, read and write combined (Ratio)
system.mem_ctrl.dram.power_state.pwrStateResidencyTicks::UNDEFINED  10989658000                       # Cumulative time (in ticks) in various power states (Tick)
system.mem_ctrl.dram.rank0.actEnergy         24290280                       # Energy for activate commands per rank (pJ) (Joule)
system.mem_ctrl.dram.rank0.preEnergy         12903000                       # Energy for precharge commands per rank (pJ) (Joule)
system.mem_ctrl.dram.rank0.readEnergy        77890260                       # Energy for read commands per rank (pJ) (Joule)
system.mem_ctrl.dram.rank0.writeEnergy       27853920                       # Energy for write commands per rank (pJ) (Joule)
system.mem_ctrl.dram.rank0.refreshEnergy 867257040.000000                       # Energy for refresh commands per rank (pJ) (Joule)
system.mem_ctrl.dram.rank0.actBackEnergy   2924020200                       # Energy for active background per rank (pJ) (Joule)
system.mem_ctrl.dram.rank0.preBackEnergy   1757696160                       # Energy for precharge background per rank (pJ) (Joule)
system.mem_ctrl.dram.rank0.actPowerDownEnergy            0                       # Energy for active power-down per rank (pJ) (Joule)
system.mem_ctrl.dram.rank0.prePowerDownEnergy            0                       # Energy for precharge power-down per rank (pJ) (Joule)
system.mem_ctrl.dram.rank0.selfRefreshEnergy            0                       # Energy for self refresh per rank (pJ) (Joule)
system.mem_ctrl.dram.rank0.totalEnergy     5691910860                       # Total energy per rank (pJ) (Joule)
system.mem_ctrl.dram.rank0.averagePower    517.933393                       # Core power per rank (mW) (Watt)
system.mem_ctrl.dram.rank0.totalIdleTime            0                       # Total Idle time Per DRAM Rank (Tick)
system.mem_ctrl.dram.rank0.pwrStateTime::IDLE   4531714750                       # Time in different power states (Tick)
system.mem_ctrl.dram.rank0.pwrStateTime::REF    366860000                       # Time in different power states (Tick)
system.mem_ctrl.dram.rank0.pwrStateTime::SREF            0                       # Time in different power states (Tick)
system.mem_ctrl.dram.rank0.pwrStateTime::PRE_PDN            0                       # Time in different power states (Tick)
system.mem_ctrl.dram.rank0.pwrStateTime::ACT   6091083250                       # Time in different power states (Tick)
system.mem_ctrl.dram.rank0.pwrStateTime::ACT_PDN            0                       # Time in different power states (Tick)
system.mem_ctrl.dram.rank1.actEnergy         25382700                       # Energy for activate commands per rank (pJ) (Joule)
system.mem_ctrl.dram.rank1.preEnergy         13468455                       # Energy for precharge commands per rank (pJ) (Joule)
system.mem_ctrl.dram.rank1.readEnergy        78832740                       # Energy for read commands per rank (pJ) (Joule)
system.mem_ctrl.dram.rank1.writeEnergy       31158180                       # Energy for write commands per rank (pJ) (Joule)
system.mem_ctrl.dram.rank1.refreshEnergy 867257040.000000                       # Energy for refresh commands per rank (pJ) (Joule)
system.mem_ctrl.dram.rank1.actBackEnergy   2990777460                       # Energy for active background per rank (pJ) (Joule)
system.mem_ctrl.dram.rank1.preBackEnergy   1701479520                       # Energy for precharge background per rank (pJ) (Joule)
system.mem_ctrl.dram.rank1.actPowerDownEnergy            0                       # Energy for active power-down per rank (pJ) (Joule)
system.mem_ctrl.dram.rank1.prePowerDownEnergy            0                       # Energy for precharge power-down per rank (pJ) (Joule)
system.mem_ctrl.dram.rank1.selfRefreshEnergy            0                       # Energy for self refresh per rank (pJ) (Joule)
system.mem_ctrl.dram.rank1.totalEnergy     5708356095                       # Total energy per rank (pJ) (Joule)
system.mem_ctrl.dram.rank1.averagePower    519.429822                       # Core power per rank (mW) (Watt)
system.mem_ctrl.dram.rank1.totalIdleTime            0                       # Total Idle time Per DRAM Rank (Tick)
system.mem_ctrl.dram.rank1.pwrStateTime::IDLE   4384391750                       # Time in different power states (Tick)
system.mem_ctrl.dram.rank1.pwrStateTime::REF    366860000                       # Time in different power states (Tick)
system.mem_ctrl.dram.rank1.pwrStateTime::SREF            0                       # Time in different power states (Tick)
system.mem_ctrl.dram.rank1.pwrStateTime::PRE_PDN            0                       # Time in different power states (Tick)
system.mem_ctrl.dram.rank1.pwrStateTime::ACT   6238406250                       # Time in different power states (Tick)
system.mem_ctrl.dram.rank1.pwrStateTime::ACT_PDN            0                       # Time in different power states (Tick)
system.mem_ctrl.power_state.pwrStateResidencyTicks::UNDEFINED  10989658000                       # Cumulative time (in ticks) in various power states (Tick)
system.membus.transDist::ReadResp                8932                       # Transaction distribution (Count)
system.membus.transDist::WritebackDirty         11329                       # Transaction distribution (Count)
system.membus.transDist::CleanEvict              6370                       # Transaction distribution (Count)
system.membus.transDist::ReadExReq              13019                       # Transaction distribution (Count)
system.membus.transDist::ReadExResp             13019                       # Transaction distribution (Count)
system.membus.transDist::ReadSharedReq           8932                       # Transaction distribution (Count)
system.membus.pktCount_system.l2cache.mem_side_port::system.mem_ctrl.port        61601                       # Packet count per connected requestor and responder (Count)
system.membus.pktCount_system.l2cache.mem_side_port::total        61601                       # Packet count per connected requestor and responder (Count)
system.membus.pktCount::total                   61601                       # Packet count per connected requestor and responder (Count)
system.membus.pktSize_system.l2cache.mem_side_port::system.mem_ctrl.port      2129920                       # Cumulative packet size per connected requestor and responder (Byte)
system.membus.pktSize_system.l2cache.mem_side_port::total      2129920                       # Cumulative packet size per connected requestor and responder (Byte)
system.membus.pktSize::total                  2129920                       # Cumulative packet size per connected requestor and responder (Byte)
system.membus.snoops                                0                       # Total snoops (Count)
system.membus.snoopTraffic                          0                       # Total snoop traffic (Byte)
system.membus.snoopFanout::samples              21951                       # Request fanout histogram (Count)
system.membus.snoopFanout::mean                     0                       # Request fanout histogram (Count)
system.membus.snoopFanout::stdev                    0                       # Request fanout histogram (Count)
system.membus.snoopFanout::underflows               0      0.00%      0.00% # Request fanout histogram (Count)
system.membus.snoopFanout::0                    21951    100.00%    100.00% # Request fanout histogram (Count)
system.membus.snoopFanout::1                        0      0.00%    100.00% # Request fanout histogram (Count)
system.membus.snoopFanout::overflows                0      0.00%    100.00% # Request fanout histogram (Count)
system.membus.snoopFanout::min_value                0                       # Request fanout histogram (Count)
system.membus.snoopFanout::max_value                0                       # Request fanout histogram (Count)
system.membus.snoopFanout::total                21951                       # Request fanout histogram (Count)
system.membus.power_state.pwrStateResidencyTicks::UNDEFINED  10989658000                       # Cumulative time (in ticks) in various power states (Tick)
system.membus.reqLayer2.occupancy            84966000                       # Layer occupancy (ticks) (Tick)
system.membus.reqLayer2.utilization               0.0                       # Layer utilization (Ratio)
system.membus.respLayer0.occupancy          117112000                       # Layer occupancy (ticks) (Tick)
system.membus.respLayer0.utilization              0.0                       # Layer utilization (Ratio)
system.membus.snoop_filter.totRequests          39650                       # Total number of requests made to the snoop filter. (Count)
system.membus.snoop_filter.hitSingleRequests        17699                       # Number of requests hitting in the snoop filter with a single holder of the requested data. (Count)
system.membus.snoop_filter.hitMultiRequests            0                       # Number of requests hitting in the snoop filter with multiple (>1) holders of the requested data. (Count)
system.membus.snoop_filter.totSnoops                0                       # Total number of snoops made to the snoop filter. (Count)
system.membus.snoop_filter.hitSingleSnoops            0                       # Number of snoops hitting in the snoop filter with a single holder of the requested data. (Count)
system.membus.snoop_filter.hitMultiSnoops            0                       # Number of snoops hitting in the snoop filter with multiple (>1) holders of the requested data. (Count)
system.workload.inst.arm                            0                       # number of arm instructions executed (Count)
system.workload.inst.quiesce                        0                       # number of quiesce instructions executed (Count)

---------- End Simulation Statistics   ----------
